<?xml version="1.0" encoding="utf-8"?>
<!DOCTYPE population SYSTEM "http://www.matsim.org/files/dtd/population_v6.dtd">

<population>



<!-- ====================================================================== -->

	<person id="1">
		<plan selected="yes">
			<activity type="home" link="223" x="2889515.3359704395" y="5442373.930049596" end_time="08:00:00" >
			</activity>
			<leg mode="car">
				<route type="links" start_link="278" end_link="1034" trav_time="00:13:00" distance="4108.70064107059" vehicleRefId="null">278 795 796 1083 1084 1085 255 256 257 258 1213 1214 1206 1207 1208 1209 1362 1363 1364 1365 604 605 606 1316 1347 661 664 1033 1034</route>
			</leg>
			<activity type="work" link="1035" x="2892400.3586855326" y="5441919.013636387" end_time="17:00:00" >
			</activity>
		</plan>

	</person>

<!-- ====================================================================== -->

</population>
