<?xml version="1.0" encoding="utf-8"?>
<!DOCTYPE population SYSTEM "http://www.matsim.org/files/dtd/population_v6.dtd">

<population>



	<!-- ====================================================================== -->

	<person id="1">
		<plan selected="yes">
			<activity type="home" link="1297" x="2892074.392952592" y="5444063.419412047" end_time="07:54:47" >
			</activity>
			<leg mode="car">
				<route type="links" start_link="1297" end_link="637" trav_time="undefined" distance="4975.872698364217" vehicleRefId="null">1297 1237 1235 1233 1250 773 774 775 776 777 266 267 268 231 232 233 81 79 1306 1307 1308 1309 170 172 174 722 807 504 256 257 258 1213 613 614 772 872 873 874 875 764 25 637</route>
			</leg>
			<activity type="work" link="638" x="2888912.9305460122" y="5440806.692502493" end_time="17:25:26" >
			</activity>
		</plan>

	</person>

	<!-- ====================================================================== -->

	<person id="10">
		<plan selected="yes">
			<activity type="home" link="19" x="2892865.3513305252" y="5441646.299931593" end_time="07:55:33" >
			</activity>
			<leg mode="car">
				<route type="links" start_link="687" end_link="411" trav_time="undefined" distance="5370.213914742608" vehicleRefId="null">687 286 559 561 563 1391 1400 211 1397 1398 565 1326 1413 1414 1243 1244 1245 879 1250 773 774 775 776 671 674 1133 985 1190 1191 1154 1164 1165 361 626 401 403 405 407 409 411</route>
			</leg>
			<activity type="work" link="1149" x="2889528.3492189134" y="5443384.146838818" end_time="17:06:13" >
			</activity>
		</plan>

	</person>

	<!-- ====================================================================== -->

	<person id="100">
		<plan selected="yes">
			<activity type="home" link="812" x="2888539.397994655" y="5441990.975097206" end_time="08:01:19" >
			</activity>
			<leg mode="car">
				<route type="links" start_link="812" end_link="19" trav_time="undefined" distance="7799.98164164795" vehicleRefId="null">812 803 880 1258 1259 1260 1261 1262 1263 624 625 826 1053 413 414 415 660 1009 1010 255 256 257 258 1213 1214 1206 1207 1208 1209 1362 1363 1364 1365 604 605 606 1316 1347 828 829 1401 1392 564 562 560 285 686 19</route>
			</leg>
			<activity type="work" link="20" x="2894356.453645803" y="5442385.507395255" end_time="17:30:18" >
			</activity>
		</plan>

	</person>

	<!-- ====================================================================== -->

	<person id="101">
		<plan selected="yes">
			<activity type="home" link="812" x="2888539.397994655" y="5441990.975097206" end_time="07:34:31" >
			</activity>
			<leg mode="car">
				<route type="links" start_link="812" end_link="19" trav_time="undefined" distance="7799.98164164795" vehicleRefId="null">812 803 880 1258 1259 1260 1261 1262 1263 624 625 826 1053 413 414 415 660 1009 1010 255 256 257 258 1213 1214 1206 1207 1208 1209 1362 1363 1364 1365 604 605 606 1316 1347 828 829 1401 1392 564 562 560 285 686 19</route>
			</leg>
			<activity type="work" link="20" x="2894356.453645803" y="5442385.507395255" end_time="18:06:00" >
			</activity>
		</plan>

	</person>

	<!-- ====================================================================== -->

	<person id="102">
		<plan selected="yes">
			<activity type="home" link="812" x="2888539.397994655" y="5441990.975097206" end_time="08:16:15" >
			</activity>
			<leg mode="car">
				<route type="links" start_link="812" end_link="19" trav_time="undefined" distance="7799.98164164795" vehicleRefId="null">812 803 880 1258 1259 1260 1261 1262 1263 624 625 826 1053 413 414 415 660 1009 1010 255 256 257 258 1213 1214 1206 1207 1208 1209 1362 1363 1364 1365 604 605 606 1316 1347 828 829 1401 1392 564 562 560 285 686 19</route>
			</leg>
			<activity type="work" link="20" x="2894356.453645803" y="5442385.507395255" end_time="16:06:33" >
			</activity>
		</plan>

	</person>

	<!-- ====================================================================== -->

	<person id="103">
		<plan selected="yes">
			<activity type="home" link="812" x="2888539.397994655" y="5441990.975097206" end_time="07:28:36" >
			</activity>
			<leg mode="car">
				<route type="links" start_link="812" end_link="19" trav_time="undefined" distance="7799.98164164795" vehicleRefId="null">812 803 880 1258 1259 1260 1261 1262 1263 624 625 826 1053 413 414 415 660 1009 1010 255 256 257 258 1213 1214 1206 1207 1208 1209 1362 1363 1364 1365 604 605 606 1316 1347 828 829 1401 1392 564 562 560 285 686 19</route>
			</leg>
			<activity type="work" link="20" x="2894356.453645803" y="5442385.507395255" end_time="17:29:32" >
			</activity>
		</plan>

	</person>

	<!-- ====================================================================== -->

	<person id="104">
		<plan selected="yes">
			<activity type="home" link="638" x="2888912.9305460122" y="5440806.692502493" end_time="07:31:47" >
			</activity>
			<leg mode="car">
				<route type="links" start_link="638" end_link="796" trav_time="undefined" distance="2061.916090693021" vehicleRefId="null">638 24 761 762 740 620 1155 1156 1157 534 536 400 1021 1022 1023 1024 1324 796</route>
			</leg>
			<activity type="work" link="1083" x="2889483.888214291" y="5442083.466929938" end_time="18:08:45" >
			</activity>
		</plan>

	</person>

	<!-- ====================================================================== -->

	<person id="105">
		<plan selected="yes">
			<activity type="home" link="638" x="2888912.9305460122" y="5440806.692502493" end_time="07:44:50" >
			</activity>
			<leg mode="car">
				<route type="links" start_link="638" end_link="796" trav_time="undefined" distance="2061.916090693021" vehicleRefId="null">638 24 761 762 740 620 1155 1156 1157 534 536 400 1021 1022 1023 1024 1324 796</route>
			</leg>
			<activity type="work" link="1083" x="2889483.888214291" y="5442083.466929938" end_time="17:26:45" >
			</activity>
		</plan>

	</person>

	<!-- ====================================================================== -->

	<person id="106">
		<plan selected="yes">
			<activity type="home" link="638" x="2888912.9305460122" y="5440806.692502493" end_time="07:59:43" >
			</activity>
			<leg mode="car">
				<route type="links" start_link="638" end_link="796" trav_time="undefined" distance="2061.916090693021" vehicleRefId="null">638 24 761 762 740 620 1155 1156 1157 534 536 400 1021 1022 1023 1024 1324 796</route>
			</leg>
			<activity type="work" link="1083" x="2889483.888214291" y="5442083.466929938" end_time="17:41:13" >
			</activity>
		</plan>

	</person>

	<!-- ====================================================================== -->

	<person id="107">
		<plan selected="yes">
			<activity type="home" link="638" x="2888912.9305460122" y="5440806.692502493" end_time="07:54:49" >
			</activity>
			<leg mode="car">
				<route type="links" start_link="638" end_link="796" trav_time="undefined" distance="2061.916090693021" vehicleRefId="null">638 24 761 762 740 620 1155 1156 1157 534 536 400 1021 1022 1023 1024 1324 796</route>
			</leg>
			<activity type="work" link="1083" x="2889483.888214291" y="5442083.466929938" end_time="17:08:38" >
			</activity>
		</plan>

	</person>

	<!-- ====================================================================== -->

	<person id="108">
		<plan selected="yes">
			<activity type="home" link="638" x="2888912.9305460122" y="5440806.692502493" end_time="07:04:20" >
			</activity>
			<leg mode="car">
				<route type="links" start_link="638" end_link="796" trav_time="undefined" distance="2061.916090693021" vehicleRefId="null">638 24 761 762 740 620 1155 1156 1157 534 536 400 1021 1022 1023 1024 1324 796</route>
			</leg>
			<activity type="work" link="1083" x="2889483.888214291" y="5442083.466929938" end_time="17:46:47" >
			</activity>
		</plan>

	</person>

	<!-- ====================================================================== -->

	<person id="109">
		<plan selected="yes">
			<activity type="home" link="638" x="2888912.9305460122" y="5440806.692502493" end_time="07:45:03" >
			</activity>
			<leg mode="car">
				<route type="links" start_link="638" end_link="796" trav_time="undefined" distance="2061.916090693021" vehicleRefId="null">638 24 761 762 740 620 1155 1156 1157 534 536 400 1021 1022 1023 1024 1324 796</route>
			</leg>
			<activity type="work" link="1083" x="2889483.888214291" y="5442083.466929938" end_time="16:56:21" >
			</activity>
		</plan>

	</person>

	<!-- ====================================================================== -->

	<person id="11">
		<plan selected="yes">
			<activity type="home" link="19" x="2892865.3513305252" y="5441646.299931593" end_time="08:04:34" >
			</activity>
			<leg mode="car">
				<route type="links" start_link="687" end_link="411" trav_time="undefined" distance="5370.213914742608" vehicleRefId="null">687 286 559 561 563 1391 1400 211 1397 1398 565 1326 1413 1414 1243 1244 1245 879 1250 773 774 775 776 671 674 1133 985 1190 1191 1154 1164 1165 361 626 401 403 405 407 409 411</route>
			</leg>
			<activity type="work" link="1149" x="2889528.3492189134" y="5443384.146838818" end_time="17:16:20" >
			</activity>
		</plan>

	</person>

	<!-- ====================================================================== -->

	<person id="110">
		<plan selected="yes">
			<activity type="home" link="638" x="2888912.9305460122" y="5440806.692502493" end_time="07:21:01" >
			</activity>
			<leg mode="car">
				<route type="links" start_link="638" end_link="796" trav_time="undefined" distance="2061.916090693021" vehicleRefId="null">638 24 761 762 740 620 1155 1156 1157 534 536 400 1021 1022 1023 1024 1324 796</route>
			</leg>
			<activity type="work" link="1083" x="2889483.888214291" y="5442083.466929938" end_time="17:15:53" >
			</activity>
		</plan>

	</person>

	<!-- ====================================================================== -->

	<person id="111">
		<plan selected="yes">
			<activity type="home" link="638" x="2888912.9305460122" y="5440806.692502493" end_time="07:46:36" >
			</activity>
			<leg mode="car">
				<route type="links" start_link="638" end_link="796" trav_time="undefined" distance="2061.916090693021" vehicleRefId="null">638 24 761 762 740 620 1155 1156 1157 534 536 400 1021 1022 1023 1024 1324 796</route>
			</leg>
			<activity type="work" link="1083" x="2889483.888214291" y="5442083.466929938" end_time="17:37:07" >
			</activity>
		</plan>

	</person>

	<!-- ====================================================================== -->

	<person id="112">
		<plan selected="yes">
			<activity type="home" link="330" x="2892313.7187258485" y="5441480.341820674" end_time="07:47:49" >
			</activity>
			<leg mode="car">
				<route type="links" start_link="331" end_link="201" trav_time="undefined" distance="4785.439604604754" vehicleRefId="null">331 333 335 251 552 314 397 318 1341 1343 1345 1007 1008 1005 995 976 983 951 603 270 840 855 805 806 807 808 809 810 811 282 283 284 991 993 701 699 697 695 693 1147 201</route>
			</leg>
			<activity type="work" link="202" x="2889358.865294181" y="5443310.291048581" end_time="18:16:06" >
			</activity>
		</plan>

	</person>

	<!-- ====================================================================== -->

	<person id="113">
		<plan selected="yes">
			<activity type="home" link="330" x="2892313.7187258485" y="5441480.341820674" end_time="07:42:01" >
			</activity>
			<leg mode="car">
				<route type="links" start_link="331" end_link="201" trav_time="undefined" distance="4785.439604604754" vehicleRefId="null">331 333 335 251 552 314 397 318 1341 1343 1345 1007 1008 1005 995 976 983 951 603 270 840 855 805 806 807 808 809 810 811 282 283 284 991 993 701 699 697 695 693 1147 201</route>
			</leg>
			<activity type="work" link="202" x="2889358.865294181" y="5443310.291048581" end_time="16:49:32" >
			</activity>
		</plan>

	</person>

	<!-- ====================================================================== -->

	<person id="114">
		<plan selected="yes">
			<activity type="home" link="330" x="2892313.7187258485" y="5441480.341820674" end_time="07:01:07" >
			</activity>
			<leg mode="car">
				<route type="links" start_link="331" end_link="201" trav_time="undefined" distance="4785.439604604754" vehicleRefId="null">331 333 335 251 552 314 397 318 1341 1343 1345 1007 1008 1005 995 976 983 951 603 270 840 855 805 806 807 808 809 810 811 282 283 284 991 993 701 699 697 695 693 1147 201</route>
			</leg>
			<activity type="work" link="202" x="2889358.865294181" y="5443310.291048581" end_time="17:12:51" >
			</activity>
		</plan>

	</person>

	<!-- ====================================================================== -->

	<person id="115">
		<plan selected="yes">
			<activity type="home" link="330" x="2892313.7187258485" y="5441480.341820674" end_time="08:06:51" >
			</activity>
			<leg mode="car">
				<route type="links" start_link="331" end_link="201" trav_time="undefined" distance="4785.439604604754" vehicleRefId="null">331 333 335 251 552 314 397 318 1341 1343 1345 1007 1008 1005 995 976 983 951 603 270 840 855 805 806 807 808 809 810 811 282 283 284 991 993 701 699 697 695 693 1147 201</route>
			</leg>
			<activity type="work" link="202" x="2889358.865294181" y="5443310.291048581" end_time="17:24:17" >
			</activity>
		</plan>

	</person>

	<!-- ====================================================================== -->

	<person id="116">
		<plan selected="yes">
			<activity type="home" link="330" x="2892313.7187258485" y="5441480.341820674" end_time="07:30:29" >
			</activity>
			<leg mode="car">
				<route type="links" start_link="331" end_link="201" trav_time="undefined" distance="4785.439604604754" vehicleRefId="null">331 333 335 251 552 314 397 318 1341 1343 1345 1007 1008 1005 995 976 983 951 603 270 840 855 805 806 807 808 809 810 811 282 283 284 991 993 701 699 697 695 693 1147 201</route>
			</leg>
			<activity type="work" link="202" x="2889358.865294181" y="5443310.291048581" end_time="17:08:42" >
			</activity>
		</plan>

	</person>

	<!-- ====================================================================== -->

	<person id="117">
		<plan selected="yes">
			<activity type="home" link="330" x="2892313.7187258485" y="5441480.341820674" end_time="08:24:42" >
			</activity>
			<leg mode="car">
				<route type="links" start_link="331" end_link="201" trav_time="undefined" distance="4785.439604604754" vehicleRefId="null">331 333 335 251 552 314 397 318 1341 1343 1345 1007 1008 1005 995 976 983 951 603 270 840 855 805 806 807 808 809 810 811 282 283 284 991 993 701 699 697 695 693 1147 201</route>
			</leg>
			<activity type="work" link="202" x="2889358.865294181" y="5443310.291048581" end_time="16:37:03" >
			</activity>
		</plan>

	</person>

	<!-- ====================================================================== -->

	<person id="118">
		<plan selected="yes">
			<activity type="home" link="330" x="2892313.7187258485" y="5441480.341820674" end_time="07:39:17" >
			</activity>
			<leg mode="car">
				<route type="links" start_link="331" end_link="201" trav_time="undefined" distance="4785.439604604754" vehicleRefId="null">331 333 335 251 552 314 397 318 1341 1343 1345 1007 1008 1005 995 976 983 951 603 270 840 855 805 806 807 808 809 810 811 282 283 284 991 993 701 699 697 695 693 1147 201</route>
			</leg>
			<activity type="work" link="202" x="2889358.865294181" y="5443310.291048581" end_time="17:03:35" >
			</activity>
		</plan>

	</person>

	<!-- ====================================================================== -->

	<person id="119">
		<plan selected="yes">
			<activity type="home" link="330" x="2892313.7187258485" y="5441480.341820674" end_time="08:21:00" >
			</activity>
			<leg mode="car">
				<route type="links" start_link="331" end_link="201" trav_time="undefined" distance="4785.439604604754" vehicleRefId="null">331 333 335 251 552 314 397 318 1341 1343 1345 1007 1008 1005 995 976 983 951 603 270 840 855 805 806 807 808 809 810 811 282 283 284 991 993 701 699 697 695 693 1147 201</route>
			</leg>
			<activity type="work" link="202" x="2889358.865294181" y="5443310.291048581" end_time="16:59:04" >
			</activity>
		</plan>

	</person>

	<!-- ====================================================================== -->

	<person id="12">
		<plan selected="yes">
			<activity type="home" link="19" x="2892865.3513305252" y="5441646.299931593" end_time="06:58:56" >
			</activity>
			<leg mode="car">
				<route type="links" start_link="687" end_link="411" trav_time="undefined" distance="5370.213914742608" vehicleRefId="null">687 286 559 561 563 1391 1400 211 1397 1398 565 1326 1413 1414 1243 1244 1245 879 1250 773 774 775 776 671 674 1133 985 1190 1191 1154 1164 1165 361 626 401 403 405 407 409 411</route>
			</leg>
			<activity type="work" link="1149" x="2889528.3492189134" y="5443384.146838818" end_time="16:32:22" >
			</activity>
		</plan>

	</person>

	<!-- ====================================================================== -->

	<person id="120">
		<plan selected="yes">
			<activity type="home" link="330" x="2892313.7187258485" y="5441480.341820674" end_time="07:23:07" >
			</activity>
			<leg mode="car">
				<route type="links" start_link="331" end_link="201" trav_time="undefined" distance="4785.439604604754" vehicleRefId="null">331 333 335 251 552 314 397 318 1341 1343 1345 1007 1008 1005 995 976 983 951 603 270 840 855 805 806 807 808 809 810 811 282 283 284 991 993 701 699 697 695 693 1147 201</route>
			</leg>
			<activity type="work" link="202" x="2889358.865294181" y="5443310.291048581" end_time="16:09:42" >
			</activity>
		</plan>

	</person>

	<!-- ====================================================================== -->

	<person id="121">
		<plan selected="yes">
			<activity type="home" link="330" x="2892313.7187258485" y="5441480.341820674" end_time="07:45:26" >
			</activity>
			<leg mode="car">
				<route type="links" start_link="331" end_link="201" trav_time="undefined" distance="4785.439604604754" vehicleRefId="null">331 333 335 251 552 314 397 318 1341 1343 1345 1007 1008 1005 995 976 983 951 603 270 840 855 805 806 807 808 809 810 811 282 283 284 991 993 701 699 697 695 693 1147 201</route>
			</leg>
			<activity type="work" link="202" x="2889358.865294181" y="5443310.291048581" end_time="16:53:47" >
			</activity>
		</plan>

	</person>

	<!-- ====================================================================== -->

	<person id="122">
		<plan selected="yes">
			<activity type="home" link="330" x="2892313.7187258485" y="5441480.341820674" end_time="07:37:39" >
			</activity>
			<leg mode="car">
				<route type="links" start_link="331" end_link="201" trav_time="undefined" distance="4785.439604604754" vehicleRefId="null">331 333 335 251 552 314 397 318 1341 1343 1345 1007 1008 1005 995 976 983 951 603 270 840 855 805 806 807 808 809 810 811 282 283 284 991 993 701 699 697 695 693 1147 201</route>
			</leg>
			<activity type="work" link="202" x="2889358.865294181" y="5443310.291048581" end_time="16:40:33" >
			</activity>
		</plan>

	</person>

	<!-- ====================================================================== -->

	<person id="123">
		<plan selected="yes">
			<activity type="home" link="703" x="2890687.3632292566" y="5444031.18224258" end_time="07:14:01" >
			</activity>
			<leg mode="car">
				<route type="links" start_link="703" end_link="26" trav_time="undefined" distance="3211.5230270266593" vehicleRefId="null">703 265 263 629 630 626 260 760 556 554 905 657 1009 1010 255 256 257 258 1213 613 614 772 872 26</route>
			</leg>
			<activity type="work" link="27" x="2889034.012756148" y="5441532.404064531" end_time="17:39:48" >
			</activity>
		</plan>

	</person>

	<!-- ====================================================================== -->

	<person id="124">
		<plan selected="yes">
			<activity type="home" link="703" x="2890687.3632292566" y="5444031.18224258" end_time="07:23:13" >
			</activity>
			<leg mode="car">
				<route type="links" start_link="703" end_link="26" trav_time="undefined" distance="3211.5230270266593" vehicleRefId="null">703 265 263 629 630 626 260 760 556 554 905 657 1009 1010 255 256 257 258 1213 613 614 772 872 26</route>
			</leg>
			<activity type="work" link="27" x="2889034.012756148" y="5441532.404064531" end_time="16:16:11" >
			</activity>
		</plan>

	</person>

	<!-- ====================================================================== -->

	<person id="125">
		<plan selected="yes">
			<activity type="home" link="703" x="2890687.3632292566" y="5444031.18224258" end_time="07:00:14" >
			</activity>
			<leg mode="car">
				<route type="links" start_link="703" end_link="26" trav_time="undefined" distance="3211.5230270266593" vehicleRefId="null">703 265 263 629 630 626 260 760 556 554 905 657 1009 1010 255 256 257 258 1213 613 614 772 872 26</route>
			</leg>
			<activity type="work" link="27" x="2889034.012756148" y="5441532.404064531" end_time="17:28:28" >
			</activity>
		</plan>

	</person>

	<!-- ====================================================================== -->

	<person id="126">
		<plan selected="yes">
			<activity type="home" link="703" x="2890687.3632292566" y="5444031.18224258" end_time="08:16:54" >
			</activity>
			<leg mode="car">
				<route type="links" start_link="703" end_link="26" trav_time="undefined" distance="3211.5230270266593" vehicleRefId="null">703 265 263 629 630 626 260 760 556 554 905 657 1009 1010 255 256 257 258 1213 613 614 772 872 26</route>
			</leg>
			<activity type="work" link="27" x="2889034.012756148" y="5441532.404064531" end_time="16:39:07" >
			</activity>
		</plan>

	</person>

	<!-- ====================================================================== -->

	<person id="127">
		<plan selected="yes">
			<activity type="home" link="703" x="2890687.3632292566" y="5444031.18224258" end_time="08:07:43" >
			</activity>
			<leg mode="car">
				<route type="links" start_link="703" end_link="26" trav_time="undefined" distance="3211.5230270266593" vehicleRefId="null">703 265 263 629 630 626 260 760 556 554 905 657 1009 1010 255 256 257 258 1213 613 614 772 872 26</route>
			</leg>
			<activity type="work" link="27" x="2889034.012756148" y="5441532.404064531" end_time="16:51:44" >
			</activity>
		</plan>

	</person>

	<!-- ====================================================================== -->

	<person id="128">
		<plan selected="yes">
			<activity type="home" link="703" x="2890687.3632292566" y="5444031.18224258" end_time="07:32:38" >
			</activity>
			<leg mode="car">
				<route type="links" start_link="703" end_link="26" trav_time="undefined" distance="3211.5230270266593" vehicleRefId="null">703 265 263 629 630 626 260 760 556 554 905 657 1009 1010 255 256 257 258 1213 613 614 772 872 26</route>
			</leg>
			<activity type="work" link="27" x="2889034.012756148" y="5441532.404064531" end_time="18:01:11" >
			</activity>
		</plan>

	</person>

	<!-- ====================================================================== -->

	<person id="129">
		<plan selected="yes">
			<activity type="home" link="703" x="2890687.3632292566" y="5444031.18224258" end_time="08:18:24" >
			</activity>
			<leg mode="car">
				<route type="links" start_link="703" end_link="26" trav_time="undefined" distance="3211.5230270266593" vehicleRefId="null">703 265 263 629 630 626 260 760 556 554 905 657 1009 1010 255 256 257 258 1213 613 614 772 872 26</route>
			</leg>
			<activity type="work" link="27" x="2889034.012756148" y="5441532.404064531" end_time="16:33:03" >
			</activity>
		</plan>

	</person>

	<!-- ====================================================================== -->

	<person id="13">
		<plan selected="yes">
			<activity type="home" link="19" x="2892865.3513305252" y="5441646.299931593" end_time="07:25:01" >
			</activity>
			<leg mode="car">
				<route type="links" start_link="687" end_link="411" trav_time="undefined" distance="5370.213914742608" vehicleRefId="null">687 286 559 561 563 1391 1400 211 1397 1398 565 1326 1413 1414 1243 1244 1245 879 1250 773 774 775 776 671 674 1133 985 1190 1191 1154 1164 1165 361 626 401 403 405 407 409 411</route>
			</leg>
			<activity type="work" link="1149" x="2889528.3492189134" y="5443384.146838818" end_time="17:17:02" >
			</activity>
		</plan>

	</person>

	<!-- ====================================================================== -->

	<person id="130">
		<plan selected="yes">
			<activity type="home" link="703" x="2890687.3632292566" y="5444031.18224258" end_time="07:21:36" >
			</activity>
			<leg mode="car">
				<route type="links" start_link="703" end_link="26" trav_time="undefined" distance="3211.5230270266593" vehicleRefId="null">703 265 263 629 630 626 260 760 556 554 905 657 1009 1010 255 256 257 258 1213 613 614 772 872 26</route>
			</leg>
			<activity type="work" link="27" x="2889034.012756148" y="5441532.404064531" end_time="17:01:50" >
			</activity>
		</plan>

	</person>

	<!-- ====================================================================== -->

	<person id="131">
		<plan selected="yes">
			<activity type="home" link="703" x="2890687.3632292566" y="5444031.18224258" end_time="07:43:09" >
			</activity>
			<leg mode="car">
				<route type="links" start_link="703" end_link="26" trav_time="undefined" distance="3211.5230270266593" vehicleRefId="null">703 265 263 629 630 626 260 760 556 554 905 657 1009 1010 255 256 257 258 1213 613 614 772 872 26</route>
			</leg>
			<activity type="work" link="27" x="2889034.012756148" y="5441532.404064531" end_time="17:09:38" >
			</activity>
		</plan>

	</person>

	<!-- ====================================================================== -->

	<person id="132">
		<plan selected="yes">
			<activity type="home" link="703" x="2890687.3632292566" y="5444031.18224258" end_time="07:31:43" >
			</activity>
			<leg mode="car">
				<route type="links" start_link="703" end_link="26" trav_time="undefined" distance="3211.5230270266593" vehicleRefId="null">703 265 263 629 630 626 260 760 556 554 905 657 1009 1010 255 256 257 258 1213 613 614 772 872 26</route>
			</leg>
			<activity type="work" link="27" x="2889034.012756148" y="5441532.404064531" end_time="18:08:14" >
			</activity>
		</plan>

	</person>

	<!-- ====================================================================== -->

	<person id="133">
		<plan selected="yes">
			<activity type="home" link="703" x="2890687.3632292566" y="5444031.18224258" end_time="08:05:30" >
			</activity>
			<leg mode="car">
				<route type="links" start_link="703" end_link="26" trav_time="undefined" distance="3211.5230270266593" vehicleRefId="null">703 265 263 629 630 626 260 760 556 554 905 657 1009 1010 255 256 257 258 1213 613 614 772 872 26</route>
			</leg>
			<activity type="work" link="27" x="2889034.012756148" y="5441532.404064531" end_time="17:51:58" >
			</activity>
		</plan>

	</person>

	<!-- ====================================================================== -->

	<person id="134">
		<plan selected="yes">
			<activity type="home" link="703" x="2890687.3632292566" y="5444031.18224258" end_time="08:18:01" >
			</activity>
			<leg mode="car">
				<route type="links" start_link="703" end_link="26" trav_time="undefined" distance="3211.5230270266593" vehicleRefId="null">703 265 263 629 630 626 260 760 556 554 905 657 1009 1010 255 256 257 258 1213 613 614 772 872 26</route>
			</leg>
			<activity type="work" link="27" x="2889034.012756148" y="5441532.404064531" end_time="17:27:55" >
			</activity>
		</plan>

	</person>

	<!-- ====================================================================== -->

	<person id="135">
		<plan selected="yes">
			<activity type="home" link="703" x="2890687.3632292566" y="5444031.18224258" end_time="07:26:27" >
			</activity>
			<leg mode="car">
				<route type="links" start_link="703" end_link="26" trav_time="undefined" distance="3211.5230270266593" vehicleRefId="null">703 265 263 629 630 626 260 760 556 554 905 657 1009 1010 255 256 257 258 1213 613 614 772 872 26</route>
			</leg>
			<activity type="work" link="27" x="2889034.012756148" y="5441532.404064531" end_time="16:50:29" >
			</activity>
		</plan>

	</person>

	<!-- ====================================================================== -->

	<person id="136">
		<plan selected="yes">
			<activity type="home" link="703" x="2890687.3632292566" y="5444031.18224258" end_time="07:13:31" >
			</activity>
			<leg mode="car">
				<route type="links" start_link="703" end_link="26" trav_time="undefined" distance="3211.5230270266593" vehicleRefId="null">703 265 263 629 630 626 260 760 556 554 905 657 1009 1010 255 256 257 258 1213 613 614 772 872 26</route>
			</leg>
			<activity type="work" link="27" x="2889034.012756148" y="5441532.404064531" end_time="17:27:18" >
			</activity>
		</plan>

	</person>

	<!-- ====================================================================== -->

	<person id="137">
		<plan selected="yes">
			<activity type="home" link="703" x="2890687.3632292566" y="5444031.18224258" end_time="07:38:12" >
			</activity>
			<leg mode="car">
				<route type="links" start_link="703" end_link="26" trav_time="undefined" distance="3211.5230270266593" vehicleRefId="null">703 265 263 629 630 626 260 760 556 554 905 657 1009 1010 255 256 257 258 1213 613 614 772 872 26</route>
			</leg>
			<activity type="work" link="27" x="2889034.012756148" y="5441532.404064531" end_time="16:36:50" >
			</activity>
		</plan>

	</person>

	<!-- ====================================================================== -->

	<person id="138">
		<plan selected="yes">
			<activity type="home" link="719" x="2893980.3384822593" y="5443211.935940219" end_time="07:11:09" >
			</activity>
			<leg mode="car">
				<route type="links" start_link="719" end_link="1154" trav_time="undefined" distance="3140.258595612644" vehicleRefId="null">719 717 715 713 1249 711 1245 879 1250 773 774 775 776 671 674 1133 985 1190 1191 1154</route>
			</leg>
			<activity type="work" link="1164" x="2890218.30742285" y="5443066.358105727" end_time="18:21:15" >
			</activity>