<?xml version="1.0" encoding="UTF-8"?>
<!DOCTYPE network SYSTEM "http://www.matsim.org/files/dtd/network_v2.dtd">
<network>

<!-- ====================================================================== -->

	<nodes>
		<node id="10689465676" x="2892677.5776134552" y="5442403.8459405685" >
		</node>
		<node id="10691679527" x="2892294.772148515" y="5441991.453607303" >
		</node>
		<node id="10691679534" x="2892223.7948411857" y="5441966.138913857" >
		</node>
		<node id="10975250000" x="2889669.168374767" y="5441356.754980944" >
		</node>
		<node id="10975250004" x="2888956.133640389" y="5441485.790360713" >
		</node>
		<node id="10975252405" x="2889034.012756148" y="5441532.404064531" >
		</node>
		<node id="11172689417" x="2892341.882557019" y="5442391.157145217" >
		</node>
		<node id="11172788266" x="2889623.4049321017" y="5442340.911539757" >
		</node>
		<node id="11728159787" x="2890203.5798542183" y="5443061.557009568" >
		</node>
		<node id="12098370706" x="2892130.7651427295" y="5442136.04197402" >
		</node>
		<node id="12100827846" x="2889442.199064988" y="5441099.044635339" >
		</node>
		<node id="12100831058" x="2889767.630464373" y="5441431.505758709" >
		</node>
		<node id="12344432804" x="2889788.369285508" y="5442389.937663377" >
		</node>
		<node id="1301848364" x="2892177.5527247097" y="5441485.281006979" >
		</node>
		<node id="1301848369" x="2892154.9771319767" y="5441826.446278031" >
		</node>
		<node id="1301848414" x="2892557.430487042" y="5441898.731164093" >
		</node>
		<node id="1301848415" x="2891870.555833" y="5441733.154387586" >
		</node>
		<node id="1301848428" x="2892505.0324027254" y="5441892.618646955" >
		</node>
		<node id="1301848432" x="2892205.627500288" y="5441713.690397928" >
		</node>
		<node id="1301864454" x="2892400.3586855326" y="5441919.013636387" >
		</node>
		<node id="1301864491" x="2891304.6075418075" y="5442420.96503646" >
		</node>
		<node id="1301864508" x="2892424.414827493" y="5441833.114430821" >
		</node>
		<node id="1301966579" x="2891335.198137877" y="5440953.762584701" >
		</node>
		<node id="1301966584" x="2891477.197280333" y="5441314.062572794" >
		</node>
		<node id="1301966586" x="2891642.3063490777" y="5441378.502563583" >
		</node>
		<node id="1301966598" x="2891155.751118718" y="5440876.006066407" >
		</node>
		<node id="1301966601" x="2891434.962665526" y="5441422.291145216" >
		</node>
		<node id="1301966603" x="2891564.638740351" y="5441347.663920106" >
		</node>
		<node id="1301966604" x="2891520.7454651315" y="5441454.442005868" >
		</node>
		<node id="1344820589" x="2890687.3632292566" y="5444031.18224258" >
		</node>
		<node id="1410199674" x="2894356.453645803" y="5442385.507395255" >
		</node>
		<node id="1410227850" x="2893372.945944644" y="5443448.107296475" >
		</node>
		<node id="1410228069" x="2893146.0990863056" y="5443637.706427237" >
		</node>
		<node id="1410229723" x="2892145.203280685" y="5442832.898056086" >
		</node>
		<node id="1410230484" x="2891966.7581369434" y="5442586.214573506" >
		</node>
		<node id="1410230485" x="2892171.3410971235" y="5442628.681327812" >
		</node>
		<node id="1410233411" x="2892030.466281525" y="5442599.397616218" >
		</node>
		<node id="1410233416" x="2892100.7422760627" y="5442614.294168462" >
		</node>
		<node id="1410235553" x="2891891.5061611678" y="5442457.256390093" >
		</node>
		<node id="1410238702" x="2891745.7110240757" y="5442431.924979307" >
		</node>
		<node id="1410238705" x="2891983.3781369193" y="5442473.912486721" >
		</node>
		<node id="1410238706" x="2891597.6783652185" y="5442477.185050491" >
		</node>
		<node id="1410238866" x="2891764.1121359034" y="5442348.012284564" >
		</node>
		<node id="1410244577" x="2891495.4759407216" y="5442381.354985604" >
		</node>
		<node id="1410244589" x="2891649.3974006413" y="5442524.930653247" >
		</node>
		<node id="1410246173" x="2891460.365773325" y="5442458.259768556" >
		</node>
		<node id="1410264407" x="2891503.9362220215" y="5441702.870227969" >
		</node>
		<node id="1410264410" x="2891267.1374012064" y="5441613.947743698" >
		</node>
		<node id="1410279407" x="2890937.097374902" y="5441478.412451743" >
		</node>
		<node id="1410289432" x="2891029.4368925155" y="5441951.6293038735" >
		</node>
		<node id="1410289434" x="2890845.5036978777" y="5441861.577618782" >
		</node>
		<node id="1410289443" x="2890824.3641265756" y="5441758.113425815" >
		</node>
		<node id="1410299203" x="2892121.3252499104" y="5441930.713895674" >
		</node>
		<node id="1410299204" x="2892274.1223829733" y="5442077.138186801" >
		</node>
		<node id="1410300765" x="2892259.8289603554" y="5442165.20072302" >
		</node>
		<node id="1410309575" x="2892395.8168503083" y="5442148.900214578" >
		</node>
		<node id="1433175041" x="2891929.165544903" y="5442744.010968111" >
		</node>
		<node id="1433175042" x="2891991.771626525" y="5442741.587348174" >
		</node>
		<node id="1433715121" x="2889768.7547912304" y="5442337.453787745" >
		</node>
		<node id="1433715124" x="2889986.629298611" y="5442728.357790714" >
		</node>
		<node id="1433725470" x="2890143.0109192776" y="5442941.947229344" >
		</node>
		<node id="1534117690" x="2889994.7222255915" y="5441591.474153367" >
		</node>
		<node id="1535795517" x="2889255.660994266" y="5442354.18684972" >
		</node>
		<node id="1536493862" x="2889077.4718853533" y="5442686.924853948" >
		</node>
		<node id="1536928724" x="2889034.70293699" y="5441861.438698454" >
		</node>
		<node id="1536937590" x="2889060.273024026" y="5441445.783025632" >
		</node>
		<node id="1536937596" x="2889175.7224679273" y="5441642.502865485" >
		</node>
		<node id="1536948972" x="2889064.33618544" y="5441435.951002684" >
		</node>
		<node id="1536948981" x="2888985.3772706203" y="5441704.259407423" >
		</node>
		<node id="1536948988" x="2888805.139883077" y="5441697.82287772" >
		</node>
		<node id="1540545636" x="2889293.6543364744" y="5439871.218785709" >
		</node>
		<node id="1540760667" x="2889109.5875584474" y="5441936.949923848" >
		</node>
		<node id="1540767604" x="2888943.8551005544" y="5442038.131614785" >
		</node>
		<node id="1540767624" x="2888983.3735197857" y="5442123.924680922" >
		</node>
		<node id="1540770832" x="2889186.2421598076" y="5442243.446652525" >
		</node>
		<node id="1540823748" x="2889220.7289380557" y="5441823.18938109" >
		</node>
		<node id="1540823830" x="2889195.6263928814" y="5441817.509108609" >
		</node>
		<node id="1550154917" x="2890335.2596798777" y="5442839.227318771" >
		</node>
		<node id="1670333724" x="2889433.0486028455" y="5441160.612319326" >
		</node>
		<node id="1670333754" x="2889803.731375238" y="5441940.994082994" >
		</node>
		<node id="1670333755" x="2889795.36014953" y="5441971.5723056095" >
		</node>
		<node id="1676188620" x="2892476.8240437587" y="5441748.1112799235" >
		</node>
		<node id="1676188636" x="2892742.666119722" y="5441758.483875875" >
		</node>
		<node id="1676207016" x="2891531.153837521" y="5443387.24990652" >
		</node>
		<node id="1676207021" x="2892074.392952592" y="5444063.419412047" >
		</node>
		<node id="1676245977" x="2891720.9201734755" y="5443821.535320795" >
		</node>
		<node id="1676246013" x="2891700.860401235" y="5443171.272716349" >
		</node>
		<node id="1676252725" x="2891990.0684383158" y="5442327.296648719" >
		</node>
		<node id="1676252728" x="2891987.107339861" y="5442348.012284564" >
		</node>
		<node id="1679242782" x="2893187.598992474" y="5442315.99723063" >
		</node>
		<node id="1679242792" x="2892691.002744045" y="5442327.821485416" >
		</node>
		<node id="1723589331" x="2891605.849215843" y="5443003.604425853" >
		</node>
		<node id="1723589334" x="2891469.1266172505" y="5442908.942119584" >
		</node>
		<node id="1723589941" x="2891639.4343062155" y="5442829.393807642" >
		</node>
		<node id="1723589946" x="2891576.7391690006" y="5442982.871877288" >
		</node>
		<node id="1723589950" x="2891479.0785797276" y="5442915.3023092635" >
		</node>
		<node id="1723589955" x="2891548.742317066" y="5442963.420682818" >
		</node>
		<node id="1860919415" x="2891045.2108643604" y="5440934.578055198" >
		</node>
		<node id="1860919423" x="2891122.0213130084" y="5440957.4513282655" >
		</node>
		<node id="1860919424" x="2891001.684943461" y="5441351.229343575" >
		</node>
		<node id="1861165296" x="2890090.345668183" y="5441513.295504426" >
		</node>
		<node id="1861165690" x="2889968.083471445" y="5441492.458266797" >
		</node>
		<node id="1861171622" x="2891327.5059610633" y="5442085.473605499" >
		</node>
		<node id="1861171625" x="2891321.561500255" y="5442097.390180147" >
		</node>
		<node id="1861173687" x="2891406.6318551195" y="5441489.818886727" >
		</node>
		<node id="1861176595" x="2891293.2863495937" y="5441030.4084972255" >
		</node>
		<node id="1861191976" x="2891941.956154395" y="5441350.889779375" >
		</node>
		<node id="1861191992" x="2891830.8704345324" y="5441843.579735904" >
		</node>
		<node id="1861194454" x="2892197.0670314464" y="5441431.181626418" >
		</node>
		<node id="1861194492" x="2891688.047527845" y="5441252.447559051" >
		</node>
		<node id="1862713894" x="2890609.3060023123" y="5442221.805080146" >
		</node>
		<node id="1862713983" x="2890357.022640328" y="5442806.608506685" >
		</node>
		<node id="1862714014" x="2890602.3374021887" y="5442232.070156281" >
		</node>
		<node id="1862730712" x="2890260.8426002823" y="5442286.004443595" >
		</node>
		<node id="1862730717" x="2890404.2443683217" y="5442293.1977639515" >
		</node>
		<node id="1862730782" x="2890502.3947633547" y="5442379.039516351" >
		</node>
		<node id="1862730805" x="2890463.588788864" y="5442430.273268771" >
		</node>
		<node id="1862740171" x="2890331.7865117644" y="5442168.812771412" >
		</node>
		<node id="1862740173" x="2889903.4736389886" y="5441950.116601172" >
		</node>
		<node id="1862740176" x="2889815.0525674517" y="5442058.244599029" >
		</node>
		<node id="1862740180" x="2890457.3882932267" y="5442208.329290804" >
		</node>
		<node id="1862740181" x="2889895.4475037022" y="5442092.558717325" >
		</node>
		<node id="1862740182" x="2890405.825105091" y="5442174.570441222" >
		</node>
		<node id="1862740185" x="2890351.8908118024" y="5442140.657354819" >
		</node>
		<node id="1862743392" x="2890600.979304401" y="5441989.74023256" >
		</node>
		<node id="1862755598" x="2890297.889726818" y="5442101.434409765" >
		</node>
		<node id="1862755600" x="2890061.5473159146" y="5442225.679566184" >
		</node>
		<node id="1862755606" x="2890113.611441759" y="5442267.187608557" >
		</node>
		<node id="1862755617" x="2890198.1474630674" y="5442258.88289786" >
		</node>
		<node id="1862755622" x="2890208.2664047806" y="5442122.226717559" >
		</node>
		<node id="1862755625" x="2890230.174080569" y="5442342.76390744" >
		</node>
		<node id="1862773134" x="2890107.566793409" y="5443158.104292448" >
		</node>
		<node id="1862773137" x="2890222.5820912966" y="5443098.622771848" >
		</node>
		<node id="1862773142" x="2890323.437549955" y="5442982.316128305" >
		</node>
		<node id="1862773146" x="2890517.511950204" y="5443178.806360061" >
		</node>
		<node id="1862773163" x="2890111.9973091427" y="5443196.204778018" >
		</node>
		<node id="1863016864" x="2892672.6127641657" y="5442431.9404158555" >
		</node>
		<node id="1872305879" x="2889880.7533309176" y="5441175.7071916275" >
		</node>
		<node id="1872305896" x="2889756.420591651" y="5441423.001148608" >
		</node>
		<node id="1872320988" x="2889404.1611949843" y="5441324.465549164" >
		</node>
		<node id="1872320992" x="2889550.0119918217" y="5441172.635738101" >
		</node>
		<node id="1872320995" x="2889547.2624003994" y="5441256.64576333" >
		</node>
		<node id="1872321000" x="2889488.697216293" y="5441371.279088282" >
		</node>
		<node id="1872321003" x="2889090.718904758" y="5441268.283442553" >
		</node>
		<node id="1872321006" x="2889137.217056062" y="5441238.355806475" >
		</node>
		<node id="1872502337" x="2888740.0959046064" y="5441949.113278085" >
		</node>
		<node id="1872845136" x="2888518.803888858" y="5442215.229262952" >
		</node>
		<node id="1872908391" x="2888604.5644245655" y="5441359.486931376" >
		</node>
		<node id="1873976576" x="2889658.882453818" y="5441174.580477402" >
		</node>
		<node id="1873979244" x="2889347.3103310363" y="5441652.952518671" >
		</node>
		<node id="1873979246" x="2889489.9885223857" y="5441564.370088547" >
		</node>
		<node id="1873979258" x="2889373.0251334095" y="5441656.579801355" >
		</node>
		<node id="1873983663" x="2889688.649285656" y="5441772.715343496" >
		</node>
		<node id="1873983665" x="2889677.728843609" y="5441897.61979704" >
		</node>
		<node id="1873983682" x="2889314.1371227796" y="5442599.16606378" >
		</node>
		<node id="1873983691" x="2889361.570357807" y="5442580.379462267" >
		</node>
		<node id="1873983692" x="2889525.8111345232" y="5441578.60125614" >
		</node>
		<node id="1873983695" x="2889178.9729970586" y="5442525.440064506" >
		</node>
		<node id="1873983699" x="2889442.3771761735" y="5442467.444545712" >
		</node>
		<node id="1873983708" x="2889604.9815563755" y="5442057.580854415" >
		</node>
		<node id="1873983725" x="2889405.1742023504" y="5442517.906955447" >
		</node>
		<node id="1873983737" x="2889092.3998290687" y="5442464.650520092" >
		</node>
		<node id="1873983742" x="2889614.989178598" y="5441762.466214921" >
		</node>
		<node id="1927712899" x="2891613.585920453" y="5441219.3095946545" >
		</node>
		<node id="1927712902" x="2891535.0611516475" y="5441172.512262602" >
		</node>
		<node id="1998907485" x="2890946.169913402" y="5443017.776068195" >
		</node>
		<node id="1998907487" x="2890821.313972528" y="5443212.692395212" >
		</node>
		<node id="1998907488" x="2891086.2320967177" y="5443295.964575951" >
		</node>
		<node id="1998907489" x="2891307.6020361097" y="5443448.400623278" >
		</node>
		<node id="1998907490" x="2891387.8967848187" y="5443494.437608636" >
		</node>
		<node id="2004337789" x="2889333.1504918076" y="5441732.984598442" >
		</node>
		<node id="2004337810" x="2889463.928629591" y="5441826.153002906" >
		</node>
		<node id="2004337812" x="2889452.896868054" y="5441846.188346249" >
		</node>
		<node id="2008561107" x="2888878.7777262367" y="5441540.152458037" >
		</node>
		<node id="2018034649" x="2891967.938123546" y="5442471.3345717415" >
		</node>
		<node id="2018034650" x="2891877.5021692254" y="5442553.70471513" >
		</node>
		<node id="2018034652" x="2891682.570608897" y="5442266.940628205" >
		</node>
		<node id="2018034654" x="2891730.2710107025" y="5442160.585329917" >
		</node>
		<node id="2018034656" x="2891907.1799454708" y="5442614.52572128" >
		</node>
		<node id="2018050434" x="2889751.8676244775" y="5442101.496153745" >
		</node>
		<node id="2018419555" x="2889536.7427085196" y="5441550.94156663" >
		</node>
		<node id="2079803263" x="2888525.215891528" y="5441324.234028789" >
		</node>
		<node id="2219276705" x="2890595.613704945" y="5441655.854344704" >
		</node>
		<node id="2219276775" x="2890406.749056865" y="5441706.75993097" >
		</node>
		<node id="2219276812" x="2890377.705801717" y="5441726.5326132905" >
		</node>
		<node id="2219276823" x="2890419.305895427" y="5441738.587641849" >
		</node>
		<node id="2219335199" x="2890319.6749511664" y="5442324.734211162" >
		</node>
		<node id="2219335206" x="2889335.465937216" y="5442648.008319755" >
		</node>
		<node id="2219801777" x="2892063.494774443" y="5442109.368514253" >
		</node>
		<node id="2219801778" x="2892215.490407172" y="5442387.421517804" >
		</node>
		<node id="2219801779" x="2891391.7818350475" y="5443594.200638598" >
		</node>
		<node id="2219968525" x="2892362.955336626" y="5442186.487131189" >
		</node>
		<node id="2219968529" x="2888913.0529974517" y="5442287.795055005" >
		</node>
		<node id="2219968532" x="2888828.1607537726" y="5442428.143025721" >
		</node>
		<node id="2219968556" x="2890208.5447035073" y="5443071.298142969" >
		</node>
		<node id="2220152671" x="2890487.9343615" y="5442064.619636976" >
		</node>
		<node id="2220152789" x="2890368.577603472" y="5442360.037254026" >
		</node>
		<node id="2220152791" x="2890252.916652538" y="5442417.862294442" >
		</node>
		<node id="2220152793" x="2890317.7157281283" y="5442448.689086142" >
		</node>
		<node id="2220152796" x="2890423.591695822" y="5442501.3433992155" >
		</node>
		<node id="2220152798" x="2890405.7026536516" y="5442576.628321279" >
		</node>
		<node id="2220152802" x="2889457.9396409867" y="5442678.434521072" >
		</node>
		<node id="2220152806" x="2889248.1135327904" y="5442732.1244305745" >
		</node>
		<node id="2220152807" x="2889538.9245705386" y="5442757.672786707" >
		</node>
		<node id="2220152809" x="2889352.074805242" y="5442800.140331931" >
		</node>
		<node id="2220152811" x="2889185.3627358307" y="5442798.10262627" >
		</node>
		<node id="2220152819" x="2889115.6656026444" y="5442872.772483647" >
		</node>
		<node id="2220152821" x="2889456.982293366" y="5442882.961099107" >
		</node>
		<node id="2220152822" x="2889280.6522199493" y="5442883.223533293" >
		</node>
		<node id="2220152824" x="2888979.878087775" y="5442909.3280532975" >
		</node>
		<node id="2220152826" x="2889703.3323264914" y="5442915.966115723" >
		</node>
		<node id="2220152828" x="2889083.31615862" y="5442911.489282401" >
		</node>
		<node id="2220152829" x="2889559.6411277754" y="5442924.904351531" >
		</node>
		<node id="2220152833" x="2889038.810626201" y="5442962.093063102" >
		</node>
		<node id="2220152835" x="2889214.161088099" y="5442961.166816905" >
		</node>
		<node id="2220152836" x="2889383.8565198635" y="5442955.13078147" >
		</node>
		<node id="2220152838" x="2889634.959895246" y="5442992.921677204" >
		</node>
		<node id="2220152840" x="2889180.386754592" y="5442996.040050528" >
		</node>
		<node id="2220152841" x="2889302.804798617" y="5443042.105648842" >
		</node>
		<node id="2220152842" x="2889135.1242496353" y="5443046.443607475" >
		</node>
		<node id="2220152844" x="2889556.1234318665" y="5443076.747624628" >
		</node>
		<node id="2220152849" x="2889367.6595339533" y="5443099.888660576" >
		</node>
		<node id="2220152850" x="2889768.020082591" y="5443119.077702484" >
		</node>
		<node id="2220153092" x="2889226.3728362387" y="5443126.240798371" >
		</node>
		<node id="2220153094" x="2889505.4174038097" y="5443130.964739658" >
		</node>
		<node id="2220153098" x="2889494.029419902" y="5443125.360848796" >
		</node>
		<node id="2220153106" x="2889651.8581939484" y="5443244.895822578" >
		</node>
		<node id="2220153108" x="2889391.8715232005" y="5443268.623923353" >
		</node>
		<node id="2225497947" x="2891199.455150804" y="5440990.542047881" >
		</node>
		<node id="2225497967" x="2891375.1729670214" y="5441072.513087965" >
		</node>
		<node id="2225497980" x="2890890.4767721584" y="5441163.34421156" >
		</node>
		<node id="2225497982" x="2890977.5397459073" y="5441191.681853373" >
		</node>
		<node id="2225497996" x="2891038.56509076" y="5441204.9246374555" >
		</node>
		<node id="2225498018" x="2891112.2585936654" y="5441219.463939811" >
		</node>
		<node id="2225498028" x="2891199.176852077" y="5441240.331428757" >
		</node>
		<node id="2225498036" x="2891299.00817142" y="5441262.4646011" >
		</node>
		<node id="2225498038" x="2890712.0650242637" y="5441263.977190835" >
		</node>
		<node id="2225498109" x="2890707.2671542102" y="5441378.332780979" >
		</node>
		<node id="2225498119" x="2891094.0801208187" y="5441550.216118303" >
		</node>
		<node id="2225498127" x="2890807.4324320266" y="5441649.340672653" >
		</node>
		<node id="2225498129" x="2891065.738178463" y="5441652.998824402" >
		</node>
		<node id="2225498132" x="2890857.526202883" y="5441654.372561084" >
		</node>
		<node id="2225498134" x="2891002.853798114" y="5441674.577318697" >
		</node>
		<node id="2225498142" x="2890957.9920433243" y="5441915.941934897" >
		</node>
		<node id="2388599988" x="2889337.0578059345" y="5442196.536061794" >
		</node>
		<node id="2389218104" x="2889845.042038271" y="5442250.346650991" >
		</node>
		<node id="2389218110" x="2889723.8485086444" y="5442253.186920321" >
		</node>
		<node id="2389218175" x="2890087.629472608" y="5442830.397226665" >
		</node>
		<node id="2389218180" x="2889851.7991313622" y="5442470.701670571" >
		</node>
		<node id="2389218219" x="2890232.2891508937" y="5442869.669589354" >
		</node>
		<node id="2392908806" x="2889143.5622670376" y="5441765.368075469" >
		</node>
		<node id="2392954484" x="2889554.8989174673" y="5442646.078706118" >
		</node>
		<node id="2393801926" x="2890169.7387290173" y="5443077.318816942" >
		</node>
		<node id="2393984709" x="2889876.0890442533" y="5441431.38227974" >
		</node>
		<node id="2393984821" x="2889762.543163644" y="5441493.322625347" >
		</node>
		<node id="2394876930" x="2889424.6996410354" y="5442491.201516024" >
		</node>
		<node id="2399360127" x="2888752.5525556263" y="5442553.70471513" >
		</node>
		<node id="2408514337" x="2891192.8427730505" y="5443366.670875072" >
		</node>
		<node id="2408514339" x="2891281.0634695045" y="5443238.689784188" >
		</node>
		<node id="2408514344" x="2891173.406389958" y="5443167.58308571" >
		</node>
		<node id="2408665328" x="2890637.403041789" y="5442994.882238528" >
		</node>
		<node id="2408665330" x="2890720.7590764947" y="5442871.151568588" >
		</node>
		<node id="2408668833" x="2890932.6668591686" y="5442672.846342619" >
		</node>
		<node id="2408668834" x="2890523.5343346563" y="5442393.210197296" >
		</node>
		<node id="2408668835" x="2890493.5559957856" y="5442719.651301194" >
		</node>
		<node id="2408668840" x="2891114.2289486527" y="5443408.755275119" >
		</node>
		<node id="2408668842" x="2890852.5056938487" y="5442785.521347505" >
		</node>
		<node id="2408668843" x="2890774.715633682" y="5442562.982208118" >
		</node>
		<node id="2408668848" x="2890652.342117453" y="5442480.04082643" >
		</node>
		<node id="2408668850" x="2890772.611695306" y="5442903.461862577" >
		</node>
		<node id="2408668852" x="2890707.6901682755" y="5442391.589366673" >
		</node>
		<node id="2411366580" x="2891550.7460679007" y="5442529.206621349" >
		</node>
		<node id="2460676965" x="2888919.7766946955" y="5441441.260602469" >
		</node>
		<node id="2461589105" x="2889660.752621263" y="5441247.230675516" >
		</node>
		<node id="2461611037" x="2889634.5925409263" y="5441564.431828925" >
		</node>
		<node id="2461643496" x="2889299.687852875" y="5441902.435721906" >
		</node>
		<node id="2461712245" x="2891680.2217676416" y="5443157.764661603" >
		</node>
		<node id="2461716061" x="2890682.576491153" y="5441869.418902944" >
		</node>
		<node id="2469895225" x="2888785.536520748" y="5441456.201585733" >
		</node>
		<node id="2469895228" x="2888774.6717384467" y="5441285.863465988" >
		</node>
		<node id="2469895232" x="2888764.497136988" y="5441253.774932255" >
		</node>
		<node id="2469895233" x="2888794.753774586" y="5441273.068169046" >
		</node>
		<node id="2479963543" x="2888765.8997625723" y="5442127.860869925" >
		</node>
		<node id="2479963545" x="2888853.730840808" y="5442185.097878975" >
		</node>
		<node id="2493642515" x="2891175.933342399" y="5443615.49035121" >
		</node>
		<node id="2496109843" x="2889566.2201096816" y="5440626.658706899" >
		</node>
		<node id="2496109864" x="2889281.3535327413" y="5440758.924941486" >
		</node>
		<node id="2496109941" x="2889140.2226823135" y="5441143.88142639" >
		</node>
		<node id="2496109952" x="2889180.40901849" y="5441213.135790527" >
		</node>
		<node id="2496110029" x="2889171.470063379" y="5441298.010525489" >
		</node>
		<node id="2496110031" x="2889236.102159734" y="5441304.431341052" >
		</node>
		<node id="2496110045" x="2889649.1642622715" y="5441456.371369776" >
		</node>
		<node id="2496139334" x="2889381.8305051313" y="5441122.489388001" >
		</node>
		<node id="2514056814" x="2890963.4800942205" y="5443472.329946425" >
		</node>
		<node id="2524044827" x="2889641.3273701193" y="5442681.305796404" >
		</node>
		<node id="2524044828" x="2889708.9762246744" y="5442556.267216418" >
		</node>
		<node id="2524044831" x="2889662.5226011667" y="5442524.220564874" >
		</node>
		<node id="2524068171" x="2889821.798528594" y="5442544.905770354" >
		</node>
		<node id="2524068172" x="2889728.846753781" y="5442518.8022836605" >
		</node>
		<node id="2524068173" x="2889650.5668878555" y="5442383.963748325" >
		</node>
		<node id="2524068174" x="2889758.8918843465" y="5442449.136746871" >
		</node>
		<node id="2524068175" x="2888649.0031652898" y="5442397.94919895" >
		</node>
		<node id="2526171870" x="2889607.2302100896" y="5443294.20464443" >
		</node>
		<node id="2526171873" x="2889061.06339241" y="5442824.299528142" >
		</node>
		<node id="2526171874" x="2889707.0170016363" y="5443186.046691492" >
		</node>
		<node id="2533338264" x="2888961.4769759467" y="5442386.881241238" >
		</node>
		<node id="254275698" x="2888495.9388654493" y="5440999.169731732" >
		</node>
		<node id="254275839" x="2888690.8592938283" y="5441154.77811151" >
		</node>
		<node id="254296544" x="2889854.6600422757" y="5442228.02586928" >
		</node>
		<node id="254395122" x="2890275.247342391" y="5443037.505253662" >
		</node>
		<node id="254455301" x="2889054.8740287223" y="5442648.178125775" >
		</node>
		<node id="254455303" x="2889066.2286167834" y="5442551.790558005" >
		</node>
		<node id="254455305" x="2889153.8370560375" y="5442588.514658052" >
		</node>
		<node id="254455316" x="2889313.6139211734" y="5442249.374167674" >
		</node>
		<node id="254525112" x="2888918.106902334" y="5442476.860881384" >
		</node>
		<node id="254525474" x="2891543.788599726" y="5443395.416691694" >
		</node>
		<node id="254525600" x="2888539.397994655" y="5441990.975097206" >
		</node>
		<node id="254525629" x="2889018.305575997" y="5441584.188770472" >
		</node>
		<node id="254525642" x="2888957.6475854632" y="5441812.847583263" >
		</node>
		<node id="254525649" x="2888703.9282020475" y="5442043.487869535" >
		</node>
		<node id="254901861" x="2892668.2045123302" y="5442450.819333945" >
		</node>
		<node id="254901948" x="2892313.7187258485" y="5441480.341820674" >
		</node>
		<node id="254901954" x="2892785.746762659" y="5441787.409897144" >
		</node>
		<node id="255019377" x="2889703.6551530147" y="5442293.058837112" >
		</node>
		<node id="255033025" x="2888676.8219060395" y="5441184.628303655" >
		</node>
		<node id="255044685" x="2889390.0013557556" y="5442409.835305033" >
		</node>
		<node id="255044686" x="2889504.6159034763" y="5442237.256725415" >
		</node>
		<node id="255044958" x="2889628.6480801185" y="5442843.642368" >
		</node>
		<node id="255044959" x="2889520.545722609" y="5442901.223448683" >
		</node>
		<node id="255062769" x="2889167.674068743" y="5441711.08182512" >
		</node>
		<node id="255063300" x="2889118.5821733032" y="5442407.874868296" >
		</node>
		<node id="255063301" x="2889205.567223409" y="5442470.3311918555" >
		</node>
		<node id="255063520" x="2888706.277043303" y="5442159.443059069" >
		</node>
		<node id="255088425" x="2888745.450372113" y="5442055.960082873" >
		</node>
		<node id="255271938" x="2889236.491777952" y="5441144.5605395315" >
		</node>
		<node id="255302406" x="2889480.1033516033" y="5441697.112853134" >
		</node>
		<node id="255302408" x="2889611.950156499" y="5441852.378010444" >
		</node>
		<node id="255302410" x="2889593.3152737403" y="5442260.796994084" >
		</node>
		<node id="255319401" x="2889193.4111350146" y="5441468.966267295" >
		</node>
		<node id="255319406" x="2889194.746968904" y="5441458.686606996" >
		</node>
		<node id="255538989" x="2889837.9621186564" y="5443038.786571552" >
		</node>
		<node id="255539365" x="2889831.9842620012" y="5441802.629281" >
		</node>
		<node id="255539375" x="2889471.5985425073" y="5441752.201662346" >
		</node>
		<node id="255539575" x="2888979.2658305755" y="5441816.351444807" >
		</node>
		<node id="255579486" x="2891401.277387612" y="5443600.036392486" >
		</node>
		<node id="255580523" x="2890200.028762462" y="5442394.398806601" >
		</node>
		<node id="255580900" x="2892388.6033473047" y="5442946.300578193" >
		</node>
		<node id="255807292" x="2892482.0337959277" y="5442436.7566202255" >
		</node>
		<node id="255810441" x="2888902.032367863" y="5442107.608809554" >
		</node>
		<node id="255810469" x="2888824.531738373" y="5442232.116464919" >
		</node>
		<node id="255810517" x="2888573.639870023" y="5442295.991737538" >
		</node>
		<node id="255810621" x="2888514.273185583" y="5442185.699888241" >
		</node>
		<node id="255810759" x="2888842.765870965" y="5442629.206181691" >
		</node>
		<node id="255811384" x="2888792.5273847696" y="5442402.425782555" >
		</node>
		<node id="255830836" x="2889444.058100485" y="5442664.51039211" >
		</node>
		<node id="255832577" x="2889348.5014495878" y="5442137.77081204" >
		</node>
		<node id="255832584" x="2889605.604945524" y="5442036.618897865" >
		</node>
		<node id="256192161" x="2890360.172981917" y="5442907.398384885" >
		</node>
		<node id="256192268" x="2889140.8683353597" y="5442649.2587096095" >
		</node>
		<node id="256222216" x="2891968.884339218" y="5442792.529812326" >
		</node>
		<node id="256222219" x="2891981.8307959973" y="5442786.586510317" >
		</node>
		<node id="256222526" x="2892002.3247142523" y="5442350.75996555" >
		</node>
		<node id="256222932" x="2892042.4665226326" y="5442782.4802311715" >
		</node>
		<node id="256223805" x="2892629.209294705" y="5442989.371055398" >
		</node>
		<node id="256365850" x="2889417.575193625" y="5442979.645446154" >
		</node>
		<node id="256365852" x="2889520.16723634" y="5443049.376747923" >
		</node>
		<node id="256365865" x="2889728.9135454753" y="5443559.124439206" >
		</node>
		<node id="256365878" x="2889528.3492189134" y="5443384.146838818" >
		</node>
		<node id="256365917" x="2889468.4593328666" y="5443189.165130237" >
		</node>
		<node id="256366106" x="2889321.0723270564" y="5443206.7333840905" >
		</node>